<?xml version="1.0" encoding="UTF-8"?>

<configuration xmlns:xsi="http://www.w3.org/2001/XMLSchema-instance" xsi:noNamespaceSchemaLocation="http://sumo.sf.net/xsd/sumoConfiguration.xsd">

    <input>
        <net-file value="castrovillari.net.xml"/>
        <route-files value="castrovillari.trips.xml"/>
    </input>

    <time>
	<begin value="0"/>
	<end value="1000"/>
    </time>




</configuration>
