<?xml version="1.0" encoding="UTF-8"?>

<!-- generated on Wed Apr 28 17:13:19 2021 by Eclipse SUMO polyconvert Version 1.1.0
<configuration xmlns:xsi="http://www.w3.org/2001/XMLSchema-instance" xsi:noNamespaceSchemaLocation="http://sumo.dlr.de/xsd/polyconvertConfiguration.xsd">

    <input>
        <net-file value="castrovillari.net.xml"/>
        <osm-files value="map.osm"/>
    </input>

    <output>
        <output-file value="castrovillari.poly.xml"/>
    </output>

    <processing>
        <poi-layer-offset value="5"/>
    </processing>

</configuration>
-->

<additional xmlns:xsi="http://www.w3.org/2001/XMLSchema-instance" xsi:noNamespaceSchemaLocation="http://sumo.dlr.de/xsd/additional_file.xsd">
    <location netOffset="-600893.44,-4406706.63" convBoundary="-13384.93,-17351.75,14018.56,17740.03" origBoundary="16.024609,39.646275,16.339308,39.965572" projParameter="+proj=utm +zone=33 +ellps=WGS84 +datum=WGS84 +units=m +no_defs"/>

    <poly id="104519975" type="landuse" color="194,194,130" fill="1" layer="-3.00" shape="3396.733700,1228.982765 3386.255876,1426.319037 3514.137083,1436.864922 3516.021183,1411.069240 3589.696131,1393.390880 3594.917559,1234.082288 3519.125147,1231.771834 3518.324123,1236.523322 3396.733700,1228.982765"/>
    <poly id="104519983" type="leisure" color="207,245,201" fill="1" layer="-2.00" shape="1937.649573,2366.375879 1861.052970,2442.045011 1909.099804,2490.291798 1985.696438,2414.623142 1937.649573,2366.375879"/>
    <poly id="104519983#1" type="sport" color="79,230,125" fill="1" layer="-2.00" shape="1937.649573,2366.375879 1861.052970,2442.045011 1909.099804,2490.291798 1985.696438,2414.623142 1937.649573,2366.375879"/>
    <poly id="104519997" type="leisure" color="207,245,201" fill="1" layer="-2.00" shape="1945.412290,2342.224186 1846.046164,2442.198812 1850.988769,2448.293067 1850.632431,2456.347705 1851.956602,2467.377802 1854.586452,2474.873062 1858.285221,2481.805414 1864.922313,2488.555191 1870.398395,2492.525204 1875.382373,2495.533917 1882.677864,2498.507063 1888.979916,2500.245752 1895.682868,2500.813109 1905.256603,2499.853766 1912.654585,2497.743998 1924.919370,2490.160142 1990.926413,2423.529940 1994.205447,2416.469285 1996.463255,2409.605827 1997.313926,2402.357118 1997.169430,2394.639885 1995.488077,2386.635568 1992.963074,2380.262880 1989.331697,2374.052942 1984.311380,2368.013058 1978.870334,2363.344064 1972.146678,2359.212895 1965.532593,2356.481948 1957.765673,2354.823428 1950.965922,2354.443439 1942.737099,2355.309787 1950.642462,2347.301064 1945.412290,2342.224186"/>
    <poly id="104519997#1" type="sport" color="79,230,125" fill="1" layer="-2.00" shape="1945.412290,2342.224186 1846.046164,2442.198812 1850.988769,2448.293067 1850.632431,2456.347705 1851.956602,2467.377802 1854.586452,2474.873062 1858.285221,2481.805414 1864.922313,2488.555191 1870.398395,2492.525204 1875.382373,2495.533917 1882.677864,2498.507063 1888.979916,2500.245752 1895.682868,2500.813109 1905.256603,2499.853766 1912.654585,2497.743998 1924.919370,2490.160142 1990.926413,2423.529940 1994.205447,2416.469285 1996.463255,2409.605827 1997.313926,2402.357118 1997.169430,2394.639885 1995.488077,2386.635568 1992.963074,2380.262880 1989.331697,2374.052942 1984.311380,2368.013058 1978.870334,2363.344064 1972.146678,2359.212895 1965.532593,2356.481948 1957.765673,2354.823428 1950.965922,2354.443439 1942.737099,2355.309787 1950.642462,2347.301064 1945.412290,2342.224186"/>
    <poly id="110614182" type="building" color="255,230,230" fill="1" layer="-1.00" shape="4903.197560,2872.642443 4902.971088,2886.549223 4943.780235,2887.224456 4944.015339,2873.317794 4903.197560,2872.642443"/>
    <poly id="110614185" type="building" color="255,230,230" fill="1" layer="-1.00" shape="4876.761763,2830.280908 4876.895269,2849.110530 4908.661483,2848.883514 4908.519498,2830.053772 4876.761763,2830.280908"/>
    <poly id="110614187" type="building" color="255,230,230" fill="1" layer="-1.00" shape="5020.469424,2825.418726 5020.339267,2842.246481 5041.358441,2842.404163 5041.480086,2825.576290 5020.469424,2825.418726"/>
    <poly id="110614189" type="building" color="255,230,230" fill="1" layer="-1.00" shape="4945.611678,2872.385158 4945.645724,2880.445164 5010.792833,2880.191806 5010.758855,2872.131799 4945.611678,2872.385158"/>
    <poly id="110614190" type="building" color="255,230,230" fill="1" layer="-1.00" shape="4903.301600,2903.505455 4902.930877,2917.321431 4934.955611,2918.186034 4935.334950,2904.370176 4903.301600,2903.505455"/>
    <poly id="110614201" type="building" color="255,230,230" fill="1" layer="-1.00" shape="4941.473766,2933.940084 4941.140310,2946.912879 4962.025455,2947.457045 4962.367504,2934.484369 4941.473766,2933.940084"/>
    <poly id="110615009" type="building" color="255,230,230" fill="1" layer="-1.00" shape="4040.284944,3019.910404 3992.081816,3026.099109 3994.620892,3045.672096 4042.815343,3039.483293 4040.284944,3019.910404"/>
    <poly id="110615010" type="building" color="255,230,230" fill="1" layer="-1.00" shape="4041.179383,2889.127801 4090.450527,2889.381649 4090.542372,2871.454396 4041.262555,2871.200434 4041.179383,2889.127801"/>
    <poly id="110615012" type="building" color="255,230,230" fill="1" layer="-1.00" shape="3926.060416,2890.958400 4002.367909,2888.839999 4001.821916,2869.349837 3925.514382,2871.457148 3926.060416,2890.958400"/>
    <poly id="110615013" type="building" color="255,230,230" fill="1" layer="-1.00" shape="3806.866758,2895.343774 3833.807104,2894.979684 3833.649695,2883.965106 3806.709159,2884.340297 3806.866758,2895.343774"/>
    <poly id="110615014" type="building" color="255,230,230" fill="1" layer="-1.00" shape="3842.616063,3048.086354 3844.751799,3065.888663 3864.820827,3063.499051 3862.693695,3045.696852 3842.616063,3048.086354"/>
    <poly id="110615016" type="building" color="255,230,230" fill="1" layer="-1.00" shape="3904.748338,3112.225079 3906.271510,3126.622045 3931.256346,3124.000196 3929.733220,3109.603224 3904.748338,3112.225079"/>
    <poly id="110615017" type="building" color="255,230,230" fill="1" layer="-1.00" shape="4032.496238,2945.625099 4032.806523,2965.445074 4082.647411,2964.685384 4082.337254,2944.865404 4032.496238,2945.625099"/>
    <poly id="110615018" type="building" color="255,230,230" fill="1" layer="-1.00" shape="3883.626337,2872.071422 3883.573710,2890.920600 3907.632392,2890.983571 3907.684926,2872.145491 3883.626337,2872.071422"/>
    <poly id="110615019" type="building" color="255,230,230" fill="1" layer="-1.00" shape="3985.548571,3099.999367 3987.472384,3118.875646 4036.282561,3113.938594 4034.358713,3095.073400 3985.548571,3099.999367"/>
    <poly id="110615020" type="building" color="255,230,230" fill="1" layer="-1.00" shape="3807.013045,3191.204793 3785.333812,3193.705735 3787.378987,3211.251462 3809.058172,3208.750527 3807.013045,3191.204793"/>
    <poly id="110615021" type="building" color="255,230,230" fill="1" layer="-1.00" shape="3829.146147,3119.260776 3831.651273,3143.218224 3872.354665,3139.001797 3869.849664,3115.044334 3829.146147,3119.260776"/>
    <poly id="110615022" type="building" color="255,230,230" fill="1" layer="-1.00" shape="4048.300168,3185.018152 4070.953834,3182.620126 4068.169881,3156.582815 4045.524698,3158.980968 4048.300168,3185.018152"/>
    <poly id="110615025" type="building" color="255,230,230" fill="1" layer="-1.00" shape="3874.514627,3039.364441 3876.700213,3058.521795 3900.985231,3055.768147 3898.791147,3036.610667 3874.514627,3039.364441"/>
    <poly id="110615026" type="building" color="255,230,230" fill="1" layer="-1.00" shape="3734.255037,2941.431105 3731.987799,2971.417836 3743.257007,2972.260177 3745.515731,2942.273331 3734.255037,2941.431105"/>
    <poly id="110615028" type="building" color="255,230,230" fill="1" layer="-1.00" shape="3802.041028,3139.860157 3816.130506,3139.109315 3815.311236,3123.922714 3801.221731,3124.673558 3802.041028,3139.860157"/>
    <poly id="110615029" type="building" color="255,230,230" fill="1" layer="-1.00" shape="3933.097185,3169.562709 3936.184237,3194.749313 3956.836676,3192.234728 3953.749690,3167.048115 3933.097185,3169.562709"/>
    <poly id="110615030" type="building" color="255,230,230" fill="1" layer="-1.00" shape="3984.863027,2962.656489 4015.789082,2962.480881 4015.645074,2938.644537 3994.725125,2938.768552 3994.729280,2944.086104 3984.749974,2944.049258 3984.863027,2962.656489"/>
    <poly id="110732243" type="building" color="255,230,230" fill="1" layer="-1.00" shape="4577.097354,3102.234181 4567.322834,3114.677222 4584.478812,3128.046463 4594.253497,3115.592345 4577.097354,3102.234181"/>
    <poly id="110732260" type="industrial" color="209,209,204" fill="1" layer="-3.00" shape="3779.077338,2712.459453 3766.749488,2859.737390 3757.159220,2987.103886 3738.446205,3235.859788 3755.125595,3234.089633 4117.275586,3195.589096 4122.392947,3213.732157 4136.142824,3213.399095 4162.102397,3218.939705 4149.979543,3292.785365 4289.841889,3320.394795 4357.066868,3333.674804 4371.550035,3243.931553 4320.698204,3234.928495 4334.942751,3174.966604 4416.326763,3190.617642 4427.662637,3122.534153 4405.877446,3117.149995 4423.057943,3049.768595 4264.306916,3008.675737 4281.233853,2950.948673 4186.244420,2927.363687 4233.998239,2861.101127 4324.197943,2880.757595 4349.553027,2794.016840 4236.066630,2764.104598 4178.400354,2751.212381 4088.959570,2741.614732 3779.077338,2712.459453"/>
    <poly id="110732309" type="building" color="255,230,230" fill="1" layer="-1.00" shape="2724.083615,1534.236041 2727.075189,1535.841789 2731.595062,1537.112984 2737.568753,1538.492667 2744.901976,1538.092370 2740.513857,1526.454470 2745.322201,1525.387233 2749.088966,1536.761399 2756.197726,1533.971325 2762.053589,1530.142990 2767.440086,1524.310096 2770.269536,1520.818234 2773.126043,1514.695765 2777.147089,1502.860866 2759.717861,1498.428667 2758.421049,1504.427939 2756.264148,1508.828103 2752.326982,1513.204169 2748.897367,1515.500090 2745.732489,1516.578468 2741.764275,1516.924399 2737.887059,1516.871922 2739.416144,1511.419748 2741.915367,1511.453574 2744.105569,1510.917059 2745.412097,1509.891235 2746.581991,1507.575827 2746.851088,1505.403643 2746.478261,1503.222770 2745.521469,1501.178307 2743.457862,1499.318685 2740.399304,1498.233779 2738.214656,1498.359627 2735.934351,1499.860725 2734.041148,1502.488279 2732.848275,1506.501854 2727.242579,1508.923751 2726.461618,1506.537535 2727.024124,1502.926170 2727.506756,1496.993583 2728.866752,1493.282000 2731.945607,1489.704690 2736.735362,1486.849910 2743.896265,1484.637789 2742.680157,1480.880240 2744.888687,1480.255164 2747.978046,1479.697517 2745.437865,1472.569496 2742.935170,1473.423714 2740.243427,1474.330881 2738.223979,1468.575352 2736.621938,1468.664682 2731.419842,1470.359362 2726.212791,1472.420317 2720.870449,1474.990097 2716.393168,1479.425480 2713.221969,1482.868332 2710.626626,1488.039656 2708.621560,1491.975639 2707.359775,1496.654355 2706.824009,1498.922842 2706.515728,1503.991899 2706.851924,1508.248190 2707.334826,1511.784891 2708.570466,1515.365081 2710.881828,1521.057944 2713.127273,1524.662899 2715.940464,1526.799084 2714.520267,1530.532057 2712.248238,1530.789944 2708.222372,1531.601361 2704.542317,1533.427664 2701.449828,1536.116707 2699.152573,1539.504782 2697.807614,1543.371989 2697.495586,1547.452993 2698.237208,1551.481645 2699.993438,1555.179888 2702.639046,1558.312905 2705.997145,1560.667381 2709.847307,1562.084918 2713.942527,1562.473366 2717.991952,1561.817688 2721.747074,1560.136723 2724.940616,1557.571168 2727.365211,1554.262532 2728.863493,1550.452910 2729.338007,1546.385207 2728.750762,1542.336439 2727.140946,1538.573563 2725.628873,1536.443881 2724.083615,1534.236041"/>
    <poly id="110734337" type="building" color="255,230,230" fill="1" layer="-1.00" shape="2382.309659,1682.403564 2371.204329,1698.461443 2389.542610,1710.364999 2400.881194,1695.420407 2382.309659,1682.403564"/>
    <poly id="110734338" type="building" color="255,230,230" fill="1" layer="-1.00" shape="2746.575850,1853.954132 2731.260917,1874.883443 2744.450952,1884.453566 2759.765904,1863.524282 2746.575850,1853.954132"/>
    <poly id="110734338#1" type="shop" color="237,199,255" fill="1" layer="-1.00" shape="2746.575850,1853.954132 2731.260917,1874.883443 2744.450952,1884.453566 2759.765904,1863.524282 2746.575850,1853.954132"/>
    <poly id="110734339" type="building" color="255,230,230" fill="1" layer="-1.00" shape="2645.382234,1809.934297 2679.514421,1835.051637 2693.752844,1815.861645 2659.612055,1790.744127 2645.382234,1809.934297"/>
    <poly id="110734339#1" type="shop" color="237,199,255" fill="1" layer="-1.00" shape="2645.382234,1809.934297 2679.514421,1835.051637 2693.752844,1815.861645 2659.612055,1790.744127 2645.382234,1809.934297"/>
    <poly id="110734343" type="building" color="255,230,230" fill="1" layer="-1.00" shape="2693.597513,1765.338167 2673.856678,1786.918184 2685.881607,1797.837880 2705.622301,1776.268993 2693.597513,1765.338167"/>
    <poly id="110740609" type="building" color="255,230,230" fill="1" layer="-1.00" shape="1474.161151,1143.360872 1476.825942,1155.352369 1511.625943,1147.669459 1508.952644,1135.677835 1474.161151,1143.360872"/>
    <poly id="110740620" type="building" color="255,230,230" fill="1" layer="-1.00" shape="1479.799665,1170.489605 1482.608016,1182.627339 1516.098324,1174.926944 1513.281463,1162.789083 1479.799665,1170.489605"/>
    <poly id="110740625" type="building" color="255,230,230" fill="1" layer="-1.00" shape="1349.301163,1196.532146 1356.875308,1211.442125 1370.596556,1204.520659 1363.022431,1189.610666 1349.301163,1196.532146"/>
    <poly id="121899726" type="building" color="255,230,230" fill="1" layer="-1.00" shape="1966.716394,1728.118435 1991.311900,1751.550347 2010.064518,1732.020159 1985.477560,1708.588304 1966.716394,1728.118435"/>
    <poly id="121899726#1" type="shop" color="237,199,255" fill="1" layer="-1.00" shape="1966.716394,1728.118435 1991.311900,1751.550347 2010.064518,1732.020159 1985.477560,1708.588304 1966.716394,1728.118435"/>
    <poly id="121899729" type="building" color="255,230,230" fill="1" layer="-1.00" shape="1847.259984,1624.617366 1866.560694,1638.231022 1873.444849,1628.543333 1854.144125,1614.929661 1847.259984,1624.617366"/>
    <poly id="121899730" type="building" color="255,230,230" fill="1" layer="-1.00" shape="1818.390358,1605.136114 1835.535468,1616.722571 1841.910011,1607.372153 1824.765038,1595.774583 1818.390358,1605.136114"/>
    <poly id="121899733" type="building" color="255,230,230" fill="1" layer="-1.00" shape="1903.554957,1195.326880 1870.392290,1258.324618 1879.837111,1263.258154 1912.999838,1200.260456 1903.554957,1195.326880"/>
    <poly id="121899735" type="building" color="255,230,230" fill="1" layer="-1.00" shape="1754.037269,934.276998 1748.939553,967.778397 1760.832602,969.569670 1765.930369,936.068277 1754.037269,934.276998"/>
    <poly id="121899736" type="building" color="255,230,230" fill="1" layer="-1.00" shape="1977.148039,1660.830363 1997.225168,1680.982253 2006.369331,1671.935612 1986.300758,1651.783814 1977.148039,1660.830363"/>
    <poly id="121899739" type="building" color="255,230,230" fill="1" layer="-1.00" shape="1804.029848,1570.385720 1821.745972,1582.168520 1827.598653,1573.432751 1809.891075,1561.650053 1804.029848,1570.385720"/>
    <poly id="121899741" type="building" color="255,230,230" fill="1" layer="-1.00" shape="2005.391615,1645.956943 1999.061943,1651.955295 2011.437308,1664.910106 2017.766981,1658.911764 2005.391615,1645.956943"/>
    <poly id="121899742" type="building" color="255,230,230" fill="1" layer="-1.00" shape="1827.076995,1559.993405 1857.516099,1579.906486 1863.764103,1570.421173 1833.333534,1550.508182 1827.076995,1559.993405"/>
    <poly id="121899745" type="building" color="255,230,230" fill="1" layer="-1.00" shape="1935.785959,1637.772776 1928.688553,1644.848784 1947.957325,1664.012783 1955.054733,1656.936793 1935.785959,1637.772776"/>
    <poly id="121899747" type="building" color="255,230,230" fill="1" layer="-1.00" shape="1797.893842,1655.138132 1791.946066,1663.950353 1815.302800,1679.594278 1821.259152,1670.782189 1797.893842,1655.138132"/>
    <poly id="121899748" type="building" color="255,230,230" fill="1" layer="-1.00" shape="1773.596448,1394.890880 1737.025078,1357.234115 1727.493643,1366.431300 1764.056601,1404.076805 1766.224645,1401.996661 1773.596448,1394.890880"/>
    <poly id="121899750" type="amenity" color="237,199,199" fill="1" layer="-1.00" shape="2176.723101,1782.352024 2162.578193,1802.321274 2177.222998,1812.620447 2191.368078,1792.640124 2176.723101,1782.352024"/>
    <poly id="121899750#1" type="building" color="255,230,230" fill="1" layer="-1.00" shape="2176.723101,1782.352024 2162.578193,1802.321274 2177.222998,1812.620447 2191.368078,1792.640124 2176.723101,1782.352024"/>
    <poly id="121899752" type="building" color="255,230,230" fill="1" layer="-1.00" shape="1872.652092,1613.623893 1891.304037,1626.462926 1897.964512,1616.861065 1879.321112,1604.022131 1872.652092,1613.623893"/>
    <poly id="121899754" type="building" color="255,230,230" fill="1" layer="-1.00" shape="1829.845996,1587.772238 1848.125586,1599.662571 1854.094615,1590.550945 1835.815011,1578.660598 1829.845996,1587.772238"/>
    <poly id="121899756" type="building" color="255,230,230" fill="1" layer="-1.00" shape="1786.260650,1408.071191 1779.363614,1414.883597 1811.013733,1446.679792 1817.910920,1439.856315 1786.260650,1408.071191"/>
    <poly id="121899758" type="building" color="255,230,230" fill="1" layer="-1.00" shape="1790.320507,1586.009838 1810.776043,1599.061575 1816.677300,1589.893507 1796.230456,1576.830770 1790.320507,1586.009838"/>
    <poly id="121899760" type="building" color="255,230,230" fill="1" layer="-1.00" shape="1843.916128,1498.053092 1846.253438,1492.289672 1849.421332,1488.424587 1853.777062,1485.352520 1859.862665,1484.146455 1864.901380,1484.402793 1869.440384,1486.173280 1874.609230,1490.128043 1883.735786,1497.066626 1927.667651,1542.382844 1928.796002,1543.141771 1930.127618,1543.426080 1931.466537,1543.166532 1932.606452,1542.426965 1933.374990,1541.293870 1933.649645,1539.965425 1933.402204,1538.629967 1932.646955,1537.498612 1867.655870,1470.518962 1862.789907,1468.233437 1856.556345,1467.705741 1850.604476,1468.513963 1845.233869,1470.662123 1840.138336,1474.001797 1835.184440,1477.632003 1832.009402,1482.029851 1829.255092,1487.610063 1827.854374,1492.475761 1827.347811,1497.053725 1827.733318,1501.499342 1832.525903,1500.320313 1843.916128,1498.053092"/>
    <poly id="121899766" type="building" color="255,230,230" fill="1" layer="-1.00" shape="2029.569137,1724.056397 2051.695132,1746.511715 2054.789392,1743.667027 2063.153866,1735.309341 2043.865405,1715.734028 2040.503281,1718.763838 2037.775069,1716.029586 2029.569137,1724.056397"/>
    <poly id="121899768" type="building" color="255,230,230" fill="1" layer="-1.00" shape="1748.319663,980.813881 1740.886234,1031.457384 1753.429261,1033.290662 1753.608702,1032.038643 1788.759967,1037.172347 1790.587935,1024.708117 1755.325488,1019.561815 1760.751795,982.623481 1748.319663,980.813881"/>
    <poly id="121902495" type="building" color="255,230,230" fill="1" layer="-1.00" shape="2114.145445,1981.674378 2109.150936,1943.163950 2097.344251,1944.614775 2103.437669,1986.070677 2104.917767,1989.309919 2107.545094,1991.898528 2111.119718,1994.699704 2113.848800,1996.723526 2117.536826,1998.094185 2124.076002,1999.414401 2128.151947,1999.946598 2130.302486,1988.985413 2121.007740,1986.973146 2119.119266,1986.092947 2117.505604,1985.782605 2115.911851,1984.628845 2114.779058,1983.570097 2114.145445,1981.674378"/>
    <poly id="121902874" type="building" color="255,230,230" fill="1" layer="-1.00" shape="1718.512881,1386.281836 1704.581517,1399.938236 1740.840378,1436.635965 1754.771893,1422.968531 1718.512881,1386.281836"/>
    <poly id="191106340" type="water" color="181,209,209" fill="1" layer="-4.00" shape="4940.422204,2457.824782 4930.017488,2453.218218 4916.017138,2438.126764 4923.664988,2426.065482 4935.064720,2412.568506 4936.968458,2401.171610 4931.157939,2388.680050 4917.047617,2381.535594 4900.619740,2379.809861 4892.708817,2374.982489 4891.611925,2364.543232 4894.739350,2354.406582 4909.466076,2352.878317 4924.381121,2356.303852 4939.859310,2354.286475 4954.148152,2348.522654 4966.663689,2344.721464 4974.091892,2348.554223 4970.717901,2357.943649 4954.614611,2368.644621 4952.193908,2381.521936 4959.153341,2383.349969 4964.578924,2387.155027 4954.034474,2410.599433 4952.270812,2430.435235 4947.777234,2448.989947 4940.422204,2457.824782"/>
    <poly id="191106342" type="leisure" color="207,245,201" fill="1" layer="-2.00" shape="2761.259891,3051.525590 2751.493148,3018.744732 2805.696481,3004.214850 2815.462865,3037.006880 2761.259891,3051.525590"/>
    <poly id="191106342#1" type="sport" color="79,230,125" fill="1" layer="-2.00" shape="2761.259891,3051.525590 2751.493148,3018.744732 2805.696481,3004.214850 2815.462865,3037.006880 2761.259891,3051.525590"/>
    <poly id="200993822" type="building" color="255,230,230" fill="1" layer="-1.00" shape="3690.402274,1105.845924 3693.199124,1111.678945 3699.412024,1108.722072 3696.606618,1102.888932 3694.581502,1103.860381 3690.402274,1105.845924"/>
    <poly id="200993823" type="building" color="255,230,230" fill="1" layer="-1.00" shape="1548.681103,1080.204186 1548.988284,1084.759743 1552.955459,1084.501983 1552.656840,1079.946540 1550.771833,1080.065638 1548.681103,1080.204186"/>
    <poly id="229279637" type="parking" color="184,184,179" fill="1" layer="-1.00" shape="4873.160113,981.159803 4861.437020,1027.234611 4817.482418,1016.792040 4834.559080,928.328811 4839.218761,923.819428 4961.163464,939.502668 5091.126844,958.484896 5104.746374,962.303503 5108.440303,966.961655 5103.692975,990.164190 5116.287067,992.603172 5107.134179,1034.727880 5112.878636,1035.973027 5093.784343,1118.446448 5073.826131,1113.041464 5072.507335,1118.018783 4999.263540,1102.174343 5018.149472,1013.647655 4873.160113,981.159803"/>
    <poly id="247883720" type="parking" color="184,184,179" fill="1" layer="-1.00" shape="4964.429111,2613.996542 4945.955901,2631.469829 4932.752410,2642.965816 4917.357262,2643.352448 4917.846293,2651.318827 4889.948428,2654.618842 4887.983896,2638.217303 4878.079583,2636.437441 4829.072724,2653.478022 4893.337753,2675.069839 4927.259339,2678.724811 4948.960257,2670.465776 4961.588553,2653.522233 4966.462219,2633.474109 4964.429111,2613.996542"/>
    <poly id="247883721" type="aeroway" color="grey" fill="1" layer="-2.00" shape="2635.195377,1569.378835 2671.504782,1601.963306 2658.730939,1616.011115 2621.570468,1583.692726 2635.195377,1569.378835"/>
    <poly id="247883722" type="parking" color="184,184,179" fill="1" layer="-1.00" shape="2689.623182,1618.715817 2677.087927,1632.844532 2723.734048,1673.928275 2733.287536,1663.167333 2702.900798,1636.401979 2705.882435,1633.045368 2689.623182,1618.715817"/>
    <poly id="247883723" type="parking" color="184,184,179" fill="1" layer="-1.00" shape="1769.560691,1405.382822 1779.363614,1414.883597 1811.013733,1446.679792 1830.997057,1466.241588 1809.208002,1488.762087 1775.274215,1457.468125 1766.885487,1440.182234 1763.329407,1410.427991 1769.560691,1405.382822"/>
    <poly id="247883724" type="parking" color="184,184,179" fill="1" layer="-1.00" shape="2599.212677,1596.201221 2584.286979,1581.357073 2591.893925,1572.734378 2573.116680,1550.233912 2606.629795,1518.027264 2638.210117,1555.343337 2599.212677,1596.201221"/>
    <poly id="263931426" type="building" color="255,230,230" fill="1" layer="-1.00" shape="4878.050756,987.821491 4863.520596,1056.759407 4999.720139,1085.251238 5014.251491,1016.313555 4878.050756,987.821491"/>
    <poly id="263931426#1" type="shop" color="237,199,255" fill="1" layer="-1.00" shape="4878.050756,987.821491 4863.520596,1056.759407 4999.720139,1085.251238 5014.251491,1016.313555 4878.050756,987.821491"/>
    <poly id="280759532" type="building" color="255,230,230" fill="1" layer="-1.00" shape="2953.855322,396.660636 2956.732897,397.232505 2957.669696,392.549421 2954.792119,391.977552 2953.855322,396.660636"/>
    <poly id="280759533" type="building" color="255,230,230" fill="1" layer="-1.00" shape="2938.085114,384.613022 2945.646906,387.013468 2952.664339,365.150537 2945.102677,362.738985 2938.085114,384.613022"/>
    <poly id="280759534" type="building" color="255,230,230" fill="1" layer="-1.00" shape="2955.221752,365.340625 2966.167988,368.819384 2969.028424,359.921746 2958.082327,356.431885 2955.221752,365.340625"/>
    <poly id="280759535" type="building" color="255,230,230" fill="1" layer="-1.00" shape="2947.355026,387.958020 2958.838119,391.621665 2965.631948,370.466186 2954.148675,366.813630 2947.355026,387.958020"/>
    <poly id="280759536" type="amenity" color="237,199,199" fill="1" layer="-1.00" shape="3016.505304,327.628551 3009.934449,353.793632 3051.507148,364.159990 3058.078290,337.983842 3016.505304,327.628551"/>
    <poly id="280759536#1" type="building" color="255,230,230" fill="1" layer="-1.00" shape="3016.505304,327.628551 3009.934449,353.793632 3051.507148,364.159990 3058.078290,337.983842 3016.505304,327.628551"/>
    <poly id="280759858" type="building" color="255,230,230" fill="1" layer="-1.00" shape="2498.013688,602.392326 2496.261067,604.744309 2495.468364,607.020441 2496.292300,609.407205 2498.078699,611.529433 2499.982481,611.932571 2501.519812,611.575886 2503.251906,610.744482 2503.933820,609.699080 2504.999864,608.103808 2505.028184,606.006077 2527.789085,596.810817 2528.991768,599.680048 2531.921886,601.429188 2535.543680,602.044254 2537.368591,601.314021 2539.290360,600.385276 2541.222322,598.701792 2542.592457,596.144833 2542.536819,593.291091 2541.819796,589.962170 2539.753471,587.647432 2536.423144,586.370233 2534.324742,586.430705 2532.120923,586.689575 2522.802667,559.665715 2520.454468,552.862321 2522.193022,551.553660 2522.880038,550.130890 2522.812852,548.131780 2521.411928,545.359784 2518.368875,544.364001 2516.453539,544.815490 2515.199443,545.753255 2514.810063,546.691594 2514.401634,548.406754 2514.948185,550.412337 2488.930025,560.518369 2488.089452,559.363607 2485.809443,558.289326 2483.044549,558.252008 2481.796602,558.734715 2480.635475,559.762550 2479.813605,561.028087 2479.254848,562.463692 2479.272760,563.673957 2479.761025,564.923873 2480.386549,566.153439 2481.250684,566.831170 2482.195905,567.210265 2483.570774,567.473046 2484.488495,567.352219 2498.013688,602.392326"/>
    <poly id="280759858#1" type="historic" color="128,255,128" fill="1" layer="-1.00" shape="2498.013688,602.392326 2496.261067,604.744309 2495.468364,607.020441 2496.292300,609.407205 2498.078699,611.529433 2499.982481,611.932571 2501.519812,611.575886 2503.251906,610.744482 2503.933820,609.699080 2504.999864,608.103808 2505.028184,606.006077 2527.789085,596.810817 2528.991768,599.680048 2531.921886,601.429188 2535.543680,602.044254 2537.368591,601.314021 2539.290360,600.385276 2541.222322,598.701792 2542.592457,596.144833 2542.536819,593.291091 2541.819796,589.962170 2539.753471,587.647432 2536.423144,586.370233 2534.324742,586.430705 2532.120923,586.689575 2522.802667,559.665715 2520.454468,552.862321 2522.193022,551.553660 2522.880038,550.130890 2522.812852,548.131780 2521.411928,545.359784 2518.368875,544.364001 2516.453539,544.815490 2515.199443,545.753255 2514.810063,546.691594 2514.401634,548.406754 2514.948185,550.412337 2488.930025,560.518369 2488.089452,559.363607 2485.809443,558.289326 2483.044549,558.252008 2481.796602,558.734715 2480.635475,559.762550 2479.813605,561.028087 2479.254848,562.463692 2479.272760,563.673957 2479.761025,564.923873 2480.386549,566.153439 2481.250684,566.831170 2482.195905,567.210265 2483.570774,567.473046 2484.488495,567.352219 2498.013688,602.392326"/>
    <poly id="280763236" type="building" color="255,230,230" fill="1" layer="-1.00" shape="2328.455906,1689.437035 2345.087516,1702.216665 2353.703487,1688.567431 2338.725710,1676.931297 2328.455906,1689.437035"/>
    <poly id="280763237" type="building" color="255,230,230" fill="1" layer="-1.00" shape="2398.001396,1655.706070 2409.047357,1663.725806 2424.946159,1641.993368 2413.900181,1633.973611 2398.001396,1655.706070"/>
    <poly id="280763238" type="building" color="255,230,230" fill="1" layer="-1.00" shape="2420.790584,1766.614250 2433.920584,1778.136810 2445.403820,1765.159138 2432.265255,1753.636443 2420.790584,1766.614250"/>
    <poly id="280763239" type="building" color="255,230,230" fill="1" layer="-1.00" shape="2389.565060,1720.123207 2401.573994,1731.630584 2411.540486,1721.307774 2399.531549,1709.800382 2389.565060,1720.123207"/>
    <poly id="280763240" type="building" color="255,230,230" fill="1" layer="-1.00" shape="2528.076158,1812.245303 2520.200295,1821.153052 2534.937598,1834.074048 2542.804758,1825.177297 2528.076158,1812.245303"/>
    <poly id="280763242" type="building" color="255,230,230" fill="1" layer="-1.00" shape="2441.831909,1748.203881 2457.449253,1761.902574 2467.654793,1750.361936 2452.046002,1736.663338 2441.831909,1748.203881"/>
    <poly id="280763243" type="building" color="255,230,230" fill="1" layer="-1.00" shape="2519.828588,1831.560912 2510.414044,1842.212971 2520.574345,1851.131215 2529.988892,1840.479168 2519.828588,1831.560912"/>
    <poly id="280763244" type="building" color="255,230,230" fill="1" layer="-1.00" shape="2441.585678,1612.955305 2445.375108,1616.336792 2450.615648,1610.512815 2446.817658,1607.131210 2441.585678,1612.955305"/>
    <poly id="280763246" type="building" color="255,230,230" fill="1" layer="-1.00" shape="2773.722975,2006.729573 2782.881850,2016.866854 2793.817415,2007.057208 2784.658391,1996.931013 2773.722975,2006.729573"/>