<?xml version="1.0" encoding="UTF-8"?>

<!-- generated on Wed Apr 28 07:51:30 2021 by Eclipse SUMO polyconvert Version 1.8.0
<configuration xmlns:xsi="http://www.w3.org/2001/XMLSchema-instance" xsi:noNamespaceSchemaLocation="http://sumo.dlr.de/xsd/polyconvertConfiguration.xsd">

    <input>
        <net-file value="castrovillari.net.xml"/>
    </input>

    <output>
        <output-file value="castrovillari.poly.xml"/>
    </output>

</configuration>
-->

<additional xmlns:xsi="http://www.w3.org/2001/XMLSchema-instance" xsi:noNamespaceSchemaLocation="http://sumo.dlr.de/xsd/additional_file.xsd">
    <location netOffset="-600893.44,-4407094.56" convBoundary="0.00,0.00,3960.07,2702.36" origBoundary="16.148057,39.807496,16.225148,39.844507" projParameter="+proj=utm +zone=33 +ellps=WGS84 +datum=WGS84 +units=m +no_defs"/>

</additional>
