<?xml version="1.0" encoding="UTF-8"?>

<!-- generated on Wed Apr 28 16:55:17 2021 by Eclipse SUMO duarouter Version 1.8.0
<configuration xmlns:xsi="http://www.w3.org/2001/XMLSchema-instance" xsi:noNamespaceSchemaLocation="http://sumo.dlr.de/xsd/duarouterConfiguration.xsd">

    <input>
        <net-file value="castrovillari.net.xml"/>
        <route-files value="castrovillari.trips.xml"/>
    </input>

    <output>
        <output-file value="castrovillari.rou.xml"/>
        <alternatives-output value="castrovillari.rou.alt.xml"/>
    </output>

    <report>
        <ignore-errors value="true"/>
    </report>

</configuration>
-->

<routes xmlns:xsi="http://www.w3.org/2001/XMLSchema-instance" xsi:noNamespaceSchemaLocation="http://sumo.dlr.de/xsd/routes_file.xsd">
    <vehicle id="0" depart="0.00">
        <route edges="247883715#1 110611806#0 110611806#1 -425506523#4 -425506523#3 -425506523#1 -425506523#0 -110614184#5 -110614184#4 -110614184#3 -110614184#2 -110614184#1 -110614184#0"/>
    </vehicle>
    <vehicle id="1" depart="1.00">
        <route edges="-425297401#1 -121899651#5 -121899651#4 -121899651#3 -121899651#2 -121899651#1 -121899651#0 -229275713#12 -229275713#11 -229275713#10 -229275713#9 -229275713#8 -229275713#7 -229275713#6 -229275713#4 -229275713#3 -229275713#2 -229275713#1 -229275713#0 820376319 421564331#2 421564331#3 421564331#4 421564331#5 421564331#6 421564331#7 421825739 110734346#0 110734346#1 110734346#2 110734346#3 110734346#4 421825735 421564137#0 421564137#1 421564137#2 421564137#3 421564137#4 421564137#5 421885162#0 421885162#1 -104519967#18 -104519967#17 -104519967#16 -104519967#15 -104519967#13 -104519967#12 -104519967#11 -104519967#10 -104519967#8 -104519967#7 -104519967#5 -104519967#4 421623916#0 421623916#1 -421623916#1"/>
    </vehicle>
    <vehicle id="2" depart="2.00">
        <route edges="421885154#1 -421885154#1 -421885154#0 426201781 229275721#3 229275721#4 229275721#5 229275744 72796670#0 72796670#2 72796670#3 104519993#0 104519993#2 104519993#3 104519993#4 104519993#5 104519993#6 104519993#7 104519993#8 104519993#9 -386815791#2 -386815791#1 -386815791#0 386815791#0"/>
    </vehicle>
    <vehicle id="3" depart="3.00">
        <route edges="425704930#1 425704930#2 -121899721#2 -121899721#1 -121899721#0 -229275713#9 -229275713#8 -229275713#7 -229275713#6 -229275713#4 -229275713#3 -229275713#2 -229275713#1 -229275713#0 820376319 421564331#2 421564331#3 421564331#4 421564331#5 421564331#6 421564331#7 421825739 110734346#0 110734346#1 110734346#2 110734346#3 110734346#4 421825735 421564137#0 421564137#1 421564137#2 421564137#3 421564137#4 421564137#5 421885162#0 421885162#1 -104519967#18 -104519967#17 -104519967#16 -104519967#15 -104519967#13 -104519967#12 -104519967#11 -104519967#10 -104519967#8 -104519967#7 -121902490#3 -121902490#2"/>
    </vehicle>
    <vehicle id="4" depart="4.00">
        <route edges="-70931135#0 229275750#0 229275750#1 -426220870#3 -426220870#2 -426220870#0 -229275711#4 -229275711#3 -229275711#2 -229275711#0 426201779 229275721#5 229275744 72796670#0 72796670#2 72796670#3 72796670#4 72796670#5 72796670#7 72796670#8 72796670#9 72796670#10 72796670#11 72796670#13 72796670#15 72796670#16 72796670#17 72796670#18 72796670#19 72796670#20 72796670#21 72796670#22 72796670#24 72796670#25 72796670#26 72796670#27 72796670#28 72796670#29 72796670#31 72796670#32 -828483694#1 -828483694#0 -72796542 -828483699 -425521607#5 -425521607#4 -425521607#2 -425521607#0 -425521662#2 -425521662#1 -425521662#0 -828483708 -828483704 421885174 828483705 -425506523#4 -425506523#3 -110614198#6"/>
    </vehicle>
    <vehicle id="5" depart="5.00">
        <route edges="-421589369#7 -421589369#6 -421589369#5 -421589369#4 -421589369#3 -421589369#1 -421589369#0 -421589082#2 -421589082#1 104519989#0 104519989#1 104519989#2 104519989#3 104519989#4 104519989#5 104519989#6 104519989#7 104519989#8 72796670#3 72796670#4 72796670#5 72796670#7 72796670#8 -110732298#17 -110732298#16 -110732298#15 -110732298#14 -110732298#12 -110732298#11 -110732298#10 -110732298#9 -110732298#8 -110732298#7 -110732298#6 -110732298#5 -110732298#4 -110732298#3 110732298#3"/>
    </vehicle>
    <vehicle id="6" depart="6.00">
        <route edges="-110614197#1 -110614197#0 -425506523#3 -425506523#1 -425506523#0 -425506083#2 -425506083#1 -425506083#0 -426037942 -421885586#2 -421885586#1 -421885586#0 -421561085#1 -421561085#0 -421560838 421560479#0 421560479#1 421560479#2 421560479#3 421560479#4 421560479#5 421560479#6 421560479#8 -421560479#8"/>
    </vehicle>
    <vehicle id="7" depart="7.00">
        <route edges="280759538#2 -280759538#2 -280759538#1 -280759538#0 -229275722#0 -425207559#3 -425207559#1 -425339068#1 -425329604#4 -425329604#3 -425329604#2 -425329604#1 -425329604#0 -264888083#4 -264888083#3 -264888083#2 -264888083#0 -70931138#4 -70931138#3 -70931138#1 -70931138#0 -72785699#10 -72785699#8 -72785699#7 264888084 425297401#1 121899710#0 121899710#1 121899710#2 121899710#3"/>
    </vehicle>
    <vehicle id="8" depart="8.00">
        <route edges="-421623809 -421623703#0 104519967#2 104519967#4 421624679#0 -426191615 -70931140#3 -70931140#2 -70931140#1 -70931140#0 -421564137#4 -421564137#3 -421564137#2 -421564137#1 -421564137#0 421825736 110734346#6 421825740 -421564331#7 -421564331#6 -421564331#5 -421564331#4 -421564331#3 -421564331#2 -421564331#0 426037925 828483710 -70931135#11 -70931135#10 -70931135#8 -70931135#7 -70931135#5 -70931135#4 -70931135#3 -70931135#1 -70931135#0 229275750#0 229275750#1 72785694#0 72785694#1 72785694#2 72785694#3 72785694#4 72785694#5 72785694#6 -425260725#12 -425260725#11 -425260725#10 -425260725#9 -425260725#8 -425260725#7 -425260725#6 229275748#0 229275748#1 229275748#2 229275748#3 229275748#4"/>
    </vehicle>
    <vehicle id="9" depart="9.00">
        <route edges="425315351#1 425268991#3 425260725#4 425260725#5 425260725#6 425260725#7 425260725#8 425260725#9 425260725#10 425260725#11 425260725#12 -72785694#6 -72785694#5 -72785694#4 -72785694#3 -72785694#2 -72785694#1 -72785694#0 -426220870#3 -426220870#2 -426220870#0 -229275711#4 -229275711#3 -229275711#2 -229275711#0 426201779 229275721#5 229275721#0 229275721#1 229275743 421885154#0 421885154#1 229275733 260024382#0 260024382#1 260024382#2 229275727 421567870 828483691 828483690 481317717 828483681 828483680 828483687#0 828483687#1 828483687#2 828483687#4 828483687#5 828483687#6 426225010 247883684#4 247883684#5 247883684#6 376798234 -70931140#11 -421624720 -421624392#1 -104519970#3 -104519970#2"/>
    </vehicle>
    <vehicle id="10" depart="10.00">
        <route edges="425313199 289608676#4 289608676#5 289608676#6 289608676#7 425260725#12 -72785694#6 -72785694#5 -72785694#4 -72785694#3 -72785694#2 -72785694#1 -72785694#0 -426220870#3 -426220870#2 -426220870#0 -229275711#4 -229275711#3 -229275711#2 -229275711#0 426201779 229275721#5 229275744 72796670#0 72796670#2 72796670#3 72796670#4 72796670#5 72796670#7 72796670#8 72796670#9 421567677#1 421567677#2"/>
    </vehicle>
    <vehicle id="11" depart="11.00">
        <route edges="-425350791#1 425350791#1 425350791#2 -70931135#7 -70931135#5 -70931135#4 -70931135#3 -70931135#1 -70931135#0 229275750#0 229275750#1 -426220870#3 -426220870#2 -426220870#0 -229275711#4 -229275711#3 -229275711#2 -229275711#0 426201779 229275721#5 229275744 72796670#0 72796670#2 72796670#3 72796670#4 -280763261 -280763270#3"/>
    </vehicle>
    <vehicle id="12" depart="12.00">
        <route edges="72796542 828483694#0 828483694#1 -72796670#32 -72796670#31 -72796670#29 -72796670#28 -72796670#27 -72796670#26 -72796670#25 -72796670#24 -72796670#22 -72796670#21 -72796670#20 -72796670#19 -72796670#18 -72796670#17 -72796670#16 -72796670#15 -72796670#13 -72796670#11 -72796670#10 -72796670#9 -72796670#8 -72796670#7 -72796670#5 -72796670#4 -72796670#3 -72796670#2 -72796670#0 426201780 229275721#1 229275721#2 229275721#3 229275741 229275711#0 229275711#2 229275711#3 229275711#4 229275711#5 426220870#2 426220870#3 72785694#0 72785694#1 72785694#2 72785694#3 72785694#4 72785694#5 72785694#6 -425260725#12 -425260725#11 -425260725#10 -425260725#9 -425260725#8 -425260725#7 -425260725#6 -425260725#5 -425260725#4 -425260725#2 -425260725#1 229275715#0 229275715#1 229275715#2 280759539#1 280759539#2 425339995#0 425339995#1 425339995#2 425339995#3 425339995#4 -425339995#4"/>
    </vehicle>
    <vehicle id="13" depart="13.00">
        <route edges="-229275713#14"/>
    </vehicle>
    <vehicle id="14" depart="14.00">
        <route edges="425339995#1 -425339995#1 -425339995#0 -425320445#0 -280759539#1 -229275715#2 -229275715#1 -229275715#0 425260725#1 425260725#2 425260725#4 425260725#5 229275748#0 229275748#1 229275748#2 -229275759#9 -229275759#8 229275759#8"/>
    </vehicle>
    <vehicle id="15" depart="15.00">
        <route edges="425313701#2 -229275753#3 -229275753#2 -229275753#0 425260725#10 425260725#11 425260725#12 -72785694#6 -72785694#5 -72785694#4 -72785694#3 -72785694#2 -72785694#1 -72785694#0 421887008 70931135#0 70931135#1 70931135#3 70931135#4 70931135#5 70931135#7 70931135#8 70931135#10 70931135#11 229275732 -72785705#3 -72785705#2 -72785705#1 421885171"/>
    </vehicle>
    <vehicle id="16" depart="16.00">
        <route edges="121899668#0 -421633136 104519967#17 104519974#1 104520005 421560479#5 425206437#0 425206437#1 -426037921#1 -426037921#0 828483664 828483658 828483673 828483672 828483671 828483670"/>
    </vehicle>
    <vehicle id="17" depart="17.00">
        <route edges="-425527213#0 425527213#0 425527213#1 425527213#2 425527213#6 425527213#9 425527213#12 425527213#13 425527213#14 425527213#15 425526945#1 426220736 425527035#1 425527035#2 425527035#3 425260219#0 425260219#1 425260219#3 425260219#4 425260219#5 425260219#6 425260219#7 828483701 -828483696 -828483697 -72796786 -72796670#32 -72796670#31 -72796670#29 -72796670#28 -72796670#27 -72796670#26 -72796670#25 -72796670#24 -72796670#22 -72796670#21 -72796670#20 -72796670#19 -72796670#18 -72796670#17 -72796670#16 -72796670#15 -72796670#13 -72796670#11 -72796670#10 -72796670#9 -72796670#8 -72796670#7 -72796670#5 -72796670#4 -72796670#3 -72796670#2 -72796670#0 426201780 229275721#1 229275721#2 229275721#3 229275741 229275711#0 229275711#2 229275711#3 229275711#4 229275711#5 426220870#2 426220870#3 72785694#0 72785694#1 72785694#2 -121899720#8 -121899720#7 -121899720#6 -121899720#5 121899720#5"/>
    </vehicle>
    <vehicle id="18" depart="18.00">
        <route edges="425328719 425709933#7 425709933#8 425709933#9 425709933#10 425709933#11 425260725#11 425260725#12 -72785694#6 -72785694#5 -72785694#4 -72785694#3 -72785694#2 -72785694#1 -72785694#0 -426220870#3 -426220870#2 -426220870#0 -229275711#4 -229275711#3 -229275711#2 -229275711#0 426201779 229275721#5 229275721#0 229275721#1 229275743 421885154#0 421885154#1 229275733 260024382#0 260024382#1 260024382#2 229275727 421567870 828483691 828483690 828483682 828483686#0 828483686#1 828483686#2 828483686#3 828483686#4 828483686#5 247883690"/>
    </vehicle>
    <vehicle id="19" depart="19.00">
        <route edges="425361303 -229275720#4 -229275720#2 -229275720#1 -229275720#0 -70931138#4 -70931138#3 -425260721#16 -425260721#15 -425260721#14 -425260721#13 -425260721#12 -425260721#11 -425260721#10 -425260721#9 -425260721#8 -425260721#7 -425260721#5 -425260721#4 -425260721#3 -425260721#2 -425260721#1 -425260721#0 -72785694#6 -72785694#5 -72785694#4 -72785694#3 -72785694#2 -72785694#1 -72785694#0 -426220870#3 -426220870#2 -426220870#0 -229275711#4 -229275711#3 -229275711#2 -229275711#0 426201779 229275721#5 229275721#0 229275721#1 229275721#2 229275721#3 229275721#4"/>
    </vehicle>
    <vehicle id="20" depart="20.00">
        <route edges="421564331#6 -421564331#6 -421564331#5 -421564331#4 -421564331#3 -421564331#2 -421564331#0 229275713#0 229275713#1 229275713#2 229275713#3 229275713#4 229275713#6 229275713#7 229275713#8 229275713#9 229275713#10 -425294067#4 -425294067#3 -425294067#2 -425294067#1 -425294067#0 -121899656 -121899653#0"/>
    </vehicle>
    <vehicle id="21" depart="21.00">
        <route edges="-421644559 104520003#1 104520003#2 104520003#4 260024378 260024382#2 260024382#3 260024382#4 260024382#5 260024382#6 260024381 -421885154#1 -421885154#0 426201781 229275721#3 229275741 229275711#0 229275711#2 229275711#3 229275711#4 229275711#5 426220870#2 426220870#3 72785694#0 72785694#1 72785694#2 72785694#3 72785694#4 425311038#0 426037937 -425311774#1 -425311825#0"/>
    </vehicle>
    <vehicle id="22" depart="22.00">
        <route edges="-121902475#1 121902475#1 121902475#2 121902475#3 -421564137#0 421825736 110734346#6 110734346#7 110734346#0 421825737 -421885155 260024385#0 260024385#1 260024382#6 260024381 -421885154#1"/>
    </vehicle>
    <vehicle id="23" depart="23.00">
        <route edges="-229275722#3 -229275722#2 -229275722#0 -425207559#3 -425207559#1 -425339068#1 -425329604#4 -425329604#3 -425329604#2 -425329604#1 -425329604#0 -264888083#4 -264888083#3 -264888083#2 -264888083#0 -70931138#4 -70931138#3 -70931138#1 -70931138#0 -72785699#10 -72785699#8 -72785699#7 264888084 425297401#1 -425297401#1"/>
    </vehicle>
    <vehicle id="24" depart="24.00">
        <route edges="247883712 -426037942 421885156 421567854#0 -426202804#2 -426202804#1 -426202804#0 376798232 247883684#6 247883684#1 247883684#2 247883707 -828483687#6 -828483687#5 -828483687#4 -828483687#2 -828483687#1 -828483687#0 -828483679 -828483689 -280763258#1 -280763258#0 421825733 110734346#4 110734346#5 110734346#6 421825740 -421564331#7 -421564331#6 -421564331#5 -421564331#4 -421564331#3 -421564331#2 -421564331#0 229275713#0 229275713#1 229275713#2 229275713#3 229275713#4 229275713#6 229275713#7 229275713#8 229275713#9 229275713#10 -425294067#4 -425294067#3 -425294067#2 -121899700#1 -425513324"/>
    </vehicle>
    <vehicle id="25" depart="25.00">
        <route edges="-425516741#0 425300168#4 425300168#5 121899705#0 121899705#1 828483677#19 828483677#20 828483677#21 828483677#23 871872640#0 871872640#2 871872640#3 -229275713#15 -229275713#14 -229275713#13 -229275713#12 -229275713#11 -229275713#10 -229275713#9 -229275713#8 -229275713#7 -229275713#6 -229275713#4 -229275713#3 -229275713#2 -229275713#1 -229275713#0 820376319 421564331#2 421564331#3 421564331#4 421564331#5 421564331#6 421564331#7 421825739 110734346#0 110734346#1 110734346#2 421825732 280763258#0 280763258#1 229275756 828483685 481317716 828483682 828483686#0 828483686#1 828483686#2 828483686#3 828483686#4 828483686#5 828483686#7 828483686#8 828483686#10 828483686#11 828483686#12 828483686#13 828483686#14 828483686#15 421567854#2 -421567854#2"/>
    </vehicle>
    <vehicle id="26" depart="26.00">
        <route edges="-425289063#9 425289063#9 425289063#11 229275713#6 229275713#7 229275713#8 229275713#9 229275713#10 229275713#11 229275713#12 229275713#13 229275713#14 229275713#15 72785699#0 72785699#1 72785699#2 72785699#3 72785699#4 72785699#5 72785699#6 72785699#7 72785699#8 72785699#10 70931138#0 70931138#1 70931138#3 70931138#4"/>
    </vehicle>
    <vehicle id="27" depart="27.00">
        <route edges="264888083#2 -264888083#2 -264888083#0 -70931138#4 -70931138#3 -70931138#1 -70931138#0 -72785699#10 -72785699#8 -72785699#7 -72785699#6 -72785699#5 -72785699#4 -72785699#3 -72785699#2 -72785699#1 -72785699#0 -871872640#3 -871872640#2 -871872640#0 -828483677#23 -828483677#21 -828483677#20 426209688#0 426209688#1 70931143#1 70931143#2 70931143#3 70931143#4 70931143#5 70931143#6 70931143#7 -421885157 -426196392#0 426196389 426196391#1 -421560479#14 -421560479#12 -421560479#11 -421560479#10 -421560479#9 -421560479#8 -421560479#6 -421560479#5 -421560479#4 -421560479#3 -421560479#2 -421560479#1 -421560479#0 421560838 421561085#0 421561085#1 229275755 441662970 229275765#0 229275765#1 229275765#2"/>
    </vehicle>
    <vehicle id="28" depart="28.00">
        <route edges="-386708391#1 386708391#1 425506874#1 425506874#2 820424747#2 820424747#3 820424747#4 -871872640#3 -871872640#2 -871872640#0 -828483677#23 -828483677#21 -828483677#20 426209688#0 426209688#1 70931143#1 70931143#2 70931143#3 70931143#4 70931143#5 70931143#6 70931143#7 -421885157 -426196392#0 426196389 426196391#1 -421560479#14 -421560479#12 -421560479#11 -421560479#10 -421560479#9 -421560479#8 -421560479#6 -421560479#5 -421560479#4 -421560479#3 -421560479#2 -421560479#1 -421560479#0 421560838 421561085#0 421885167"/>
    </vehicle>
    <vehicle id="29" depart="29.00">
        <route edges="-386704226 425291268#2 425291268#3 229275713#6 229275713#7 229275713#8 229275713#9 121899721#0 121899721#1 121899721#2 -425704930#2"/>
    </vehicle>
    <vehicle id="30" depart="30.00">
        <route edges="828483687#0 -828483687#0 -828483679 -828483689 -280763258#1 280763258#1"/>
    </vehicle>
    <vehicle id="31" depart="31.00">
        <route edges="121899711#2 121899711#3 -229275713#13 -229275713#12 -229275713#11 -229275713#10 -229275713#9 -229275713#8 -229275713#7 -229275713#6 -229275713#4 -229275713#3 -229275713#2 -229275713#1 -229275713#0 426037925 828483710 -70931135#11 -70931135#10 -70931135#8 -70931135#7 -70931135#5 -70931135#4 -70931135#3 -70931135#1 -70931135#0 229275750#0 229275750#1 -426220870#3 -426220870#2 -426220870#0 -229275711#4 -229275711#3 -229275711#2 -229275711#0 426201779 229275721#5 229275744 72796670#0 72796670#2 72796670#3 72796670#4 72796670#5 -420634962#5 420634962#5"/>
    </vehicle>
    <vehicle id="32" depart="32.00">
        <route edges="425338768#3 425338768#4 -425339014#0 -425207559#1 -425339068#1 -425329604#4 -425329604#3 -425329604#2 -425329604#1 -425329604#0 -264888083#4 -264888083#3 -264888083#2 -264888083#0 -70931138#4 -70931138#3 -70931138#1 -70931138#0 -72785699#10 -72785699#8 -72785699#7 -72785699#6 -72785699#5 -72785699#4 -72785699#3 -72785699#2 -72785699#1 -72785699#0 -229275713#15 -229275713#14 -229275713#13 -229275713#12 -229275713#11 425294067#5 425294067#6"/>
    </vehicle>
    <vehicle id="33" depart="33.00">
        <route edges="-421885153#0 -828483687#2 -828483687#1 -828483687#0 -828483679 481317715 828483685 828483684 -828483691 -421567870 104519973 260024382#4 260024382#5 260024382#6 260024381 -421885154#1 -421885154#0 426201781 229275721#3 229275721#4 229275721#5 229275744 72796670#0 72796670#2 72796670#3 72796670#4 72796670#5 72796670#7 72796670#8 -110732298#17 -110732298#16 -110732298#15 -110732298#14 -110732298#12 -110732298#11"/>
    </vehicle>
    <vehicle id="34" depart="34.00">
        <route edges="-425329604#3 -425329604#2 -425329604#1 -425329604#0 -264888083#4 -264888083#3 -264888083#2 -264888083#0 -70931138#4 -70931138#3 -70931138#1 -70931138#0 -72785699#10 -72785699#8 -72785699#7 -72785699#6 -72785699#5 -72785699#4 -72785699#3 -72785699#2 -72785699#1 -72785699#0 -229275713#15 -229275713#14 -229275713#13 -229275713#12 -229275713#11 -229275713#10 -229275713#9 -229275713#8 -229275713#7 -229275713#6 -425289063#11"/>
    </vehicle>
    <vehicle id="35" depart="35.00">
        <route edges="-421568141#1 -421568070#4 -421568070#3 -421568070#2 -421568070#1 -421568070#0 -421567879#2 -421567879#1 -421567879#0 -421567854#3 -421567854#2 -421567854#1 -421567854#0 247883712 -426037942 -421885586#2 -421885586#1 -421885586#0 -421561085#1 -421561085#0 -421560838 -425262076#1 -425262076#0 -426322196 -70931146#4 -70931146#3 70931146#3"/>
    </vehicle>
    <vehicle id="36" depart="36.00">
        <route edges="425510052 -425510052 -70931135#5 -70931135#4 -70931135#3 -70931135#1 -70931135#0 229275750#0 229275750#1 -426220870#3 -426220870#2 -426220870#0 -229275711#4 -229275711#3 -229275711#2 -229275711#0 426201779 229275721#5 229275744 72796670#0 72796670#2 72796670#3 72796670#4 72796670#5 72796670#7 72796670#8 72796670#9 72796670#10 72796670#11 72796670#13 72796670#15 72796670#16 72796670#17 72796670#18 72796670#19 72796670#20 72796670#21 72796670#22 72796670#24 72796670#25 72796670#26 72796670#27 72796670#28 72796670#29 72796670#31 72796670#32 72796786 828483697 828483696 -828483701 -425260219#7 -425260219#6 -425260219#5 -425260219#4 -425260219#3 -425260219#1 -425260219#0 -425527035#3 -425527035#2 -425527035#1 -425527035#0 -425526945#1 -425527213#15 -425527213#14 -425527213#13 -425527213#12 -425527213#9 -425527213#6 425327617#1 425327617#2 425327617#3 425327617#5 425327617#6 -425327617#6"/>
    </vehicle>
    <vehicle id="37" depart="37.00">
        <route edges="280764263#0 -280764263#0 70931149#8 425206438 828483665 828483670 828483669 828483663 828483656 426037921#1 -421560479#6 -421560479#5 -421560479#4 -421560479#3 -421560479#2 -421560479#1 -421560479#0 -425262076#1 -425262076#0 -426322196"/>
    </vehicle>
    <vehicle id="38" depart="38.00">
        <route edges="426526878#3 426526878#4 425257901#3 425257901#4 -280759538#2 -280759538#1 -280759538#0 -229275722#0 -425207559#3 -425207559#1 -425207559#0 425260725#0 425260725#1 425260725#2 425260725#4 425260725#5 425260725#6 425260725#7 425260725#8 425260725#9 425260725#10 425260725#11 425260725#12 -72785694#6 -72785694#5 -72785694#4 -72785694#3 -72785694#2 -72785694#1 -72785694#0 -426220870#3 -426220870#2 -426220870#0 -229275711#4 -229275711#3 -229275711#2 -229275711#0 426201779 229275721#5 229275721#0 229275721#1 229275743 421885154#0 421885154#1 229275733 260024382#0 260024382#1 260024382#2 229275727 421567870 828483691 828483690 828483682 -828483682"/>
    </vehicle>
    <vehicle id="39" depart="39.00">
        <route edges="-425289063#2 -425289063#1 -425293684 -70931148#9 -70931148#8 -70931148#7 -70931148#6 -70931148#5 -70931148#4 -70931148#3 -70931148#2 -70931148#1 -70931148#0 72785699#10 70931138#0 70931138#1 70931138#3 70931138#4 264888083#0 -425207563#5 -425207563#4 -425207563#2 -425207563#1 -425207563#0"/>
    </vehicle>
    <vehicle id="40" depart="40.00">
        <route edges="121899720#1 121899720#2 121899720#3 121899720#4 121899720#5 121899720#6 121899720#7 121899720#8 425261413#0 -425310466#0 425261124#1 -425261413#1"/>
    </vehicle>
    <vehicle id="41" depart="41.00">
        <route edges="229275720#0 -229275720#0 264888083#0 264888083#2 264888083#3 264888083#4 425329604#0 425329604#1 425329604#2 425329604#3 425329604#4 425339068#1 425207559#1 425207559#3 280759539#0 280759539#1 425257901#0 -426540474 426037927#0 426037927#1"/>
    </vehicle>
    <vehicle id="42" depart="42.00">
        <route edges="-426202804#2 -426202804#1 -247883690 -828483686#5 -828483686#4 -828483686#3 -828483686#2 -828483686#1 -828483686#0 -828483682 -828483690 -828483691 -421567870 104519973 260024382#4 260024382#5 260024382#6 260024381 -421885154#1 -421885154#0 426201781 229275721#3 229275721#4 229275721#5 229275744 72796670#0 -247883705#1 -247883705#0 -104519989#6 -104519989#5 -104519989#4 -104519989#3 -104519989#2 -104519989#1 -104519989#0 421589082#1 421589082#2 421589369#0 421589369#1 421589369#3 421589369#4 -421589369#4"/>
    </vehicle>
    <vehicle id="43" depart="43.00">
        <route edges="863982869 -828483687#5 -828483687#4 -828483687#2 -828483687#1 -828483687#0 -828483679 -828483689 -280763258#1 -280763258#0 421825733 110734346#4"/>
    </vehicle>
    <vehicle id="44" depart="44.00">
        <route edges="-229275713#1 229275713#1 229275713#2 229275713#3 229275713#4 229275713#6 229275713#7 -121899661#3 -121899661#2 -121899661#1"/>
    </vehicle>
    <vehicle id="45" depart="45.00">
        <route edges="-229275748#7 -229275748#6 -229275748#4 -229275748#3 -229275748#2 -229275748#1 -229275748#0 425260725#6 425260725#7 425260725#8 425260725#9 425260725#10 425260725#11 425260725#12 -72785694#6 -72785694#5 -72785694#4 -72785694#3 -72785694#2 -72785694#1 -72785694#0 -426220870#3 -426220870#2 -426220870#0 -229275711#4 -229275711#3 -229275711#2 -229275711#0 426201779 229275721#5 229275744 72796670#0 72796670#2 72796670#3 72796670#4 72796670#5 72796670#7 72796670#8 72796670#9 72796670#10 72796670#11 72796670#13 72796670#15 72796670#16 72796670#17 72796670#18 72796670#19 72796670#20 72796670#21 72796670#22 72796670#24 72796670#25 72796670#26 72796670#27 72796670#28 72796670#29 72796670#31 72796670#32 72796786 828483697 828483696 -828483701 -425260219#7 -425260219#6 -425260219#5 -425260219#4 -425260219#3 -425260219#1 -425260219#0 -425527035#3 -425527035#2 -425527035#1 -425527035#0 -425526945#1 -425527213#15 -425527213#14 -425527213#13 -425527213#12 -425527213#9 -425527213#6 425327617#1 425327617#2 425327617#3 425327617#5 425327617#6 425327617#7 386814917#0 -247883714#6 -247883714#5 247883714#5"/>
    </vehicle>
    <vehicle id="46" depart="46.00">
        <route edges="425297401#5 -121899661#11 -121899661#10 -121899661#9 -121899661#8 -121899661#7 -121899661#6 -121899661#5 -121899661#4 229275713#8 229275713#9 229275713#10 229275713#11 229275713#12 229275713#13 229275713#14 229275713#15 -871872640#3 -871872640#2 -871872640#0 -828483677#23 -828483677#21 -828483677#20 426209688#0 426209688#1 -70931143#0"/>
    </vehicle>
    <vehicle id="47" depart="47.00">
        <route edges="-121899702#2 121899702#2 828483677#21 828483677#23 871872640#0 871872640#2 871872640#3 72785699#0 72785699#1 72785699#2 72785699#3 72785699#4 72785699#5 72785699#6 72785699#7 72785699#8 72785699#10 70931138#0 70931138#1 70931138#3 425308607#0 425308607#1 425308607#2 425308607#3 425711063#0 425711063#1 -425709933#2"/>
    </vehicle>
    <vehicle id="48" depart="48.00">
        <route edges="828483706#2 -828483706#2 -828483706#1 -828483706#0 421885179 828483707 828483708 425521662#0 425521662#1 425521662#2 425521607#0 425521607#2 425521607#4 425521607#5 828483699 72796542 828483694#0 828483694#1 -72796670#32 -72796670#31 -72796670#29 -72796670#28 -72796670#27 -72796670#26 -72796670#25 -72796670#24 -72796670#22 -72796670#21 -72796670#20 -72796670#19 -72796670#18 -72796670#17 -72796670#16 -72796670#15 -72796670#13 -72796670#11 -72796670#10 -72796670#9 -72796670#8 -72796670#7 -72796670#5 -72796670#4 -72796670#3 -72796670#2 -72796670#0 426201780 229275721#1 229275721#2 229275721#3 229275741 229275711#0 229275711#2 229275711#3 229275711#4 229275711#5 426220870#2 426220870#3 421887008 70931135#0 70931135#1 70931135#3 70931135#4 70931135#5 70931135#7 70931135#8 70931135#10 70931135#11 229275732 229275713#0 229275713#1 229275713#2 229275713#3 229275713#4 229275713#6 229275713#7 229275713#8 229275713#9 229275713#10 229275713#11 229275713#12 229275713#13 229275713#14 229275713#15 -820424747#4 -820424747#3 121899688#0 121899683#0"/>
    </vehicle>
    <vehicle id="49" depart="49.00">
        <route edges="828483657#2 72785705#0 421885171 425291268#0 425291268#1 425291268#2 425291268#3 -425289063#11 -425289063#9 -425289063#8 -425289063#7 -425412276 425412276"/>
    </vehicle>
    <vehicle id="50" depart="50.00">
        <route edges="-104519989#7 247883705#0 247883705#1 -72796670#0 426201780 229275721#1 229275743 421885154#0 421885154#1 229275733 260024382#0 260024382#1 260024382#2 229275727 421567870 828483691 828483690 828483682 828483686#0 828483686#1 828483686#2 421635875"/>
    </vehicle>
    <vehicle id="51" depart="51.00">
        <route edges="386814917#4 -386814917#4 -386814917#3 -386814917#2 -386814917#1 -386814917#0 -425327617#7 -425327617#6 -425327617#5 -425327617#3 -425327617#2 -425327617#1 425527213#6 425527213#9 425527213#12 425527213#13 425527213#14 425527213#15 425526945#1 426220736 425527035#1 425527035#2 425527035#3 425260219#0 425260219#1 425260219#3 425260219#4 425260219#5 425260219#6 425260219#7 828483701 -828483696 -828483697 -72796786 -72796670#32 -72796670#31 -72796670#29 -72796670#28 -72796670#27 -72796670#26 -72796670#25 -72796670#24 -72796670#22 -72796670#21 -72796670#20 -72796670#19 -72796670#18 -72796670#17 -72796670#16 -72796670#15 -72796670#13 -72796670#11 -72796670#10 -72796670#9 -72796670#8 -72796670#7 -72796670#5 -72796670#4 -72796670#3 -72796670#2 -72796670#0 426201780 229275721#1 229275721#2 229275721#3 229275741 229275711#0 229275711#2 229275711#3 229275711#4 229275711#5 426220870#2 426220870#3 421887008 70931135#0 70931135#1 70931135#3 70931135#4 70931135#5 70931135#7 70931135#8 70931135#10 70931135#11 229275732 229275713#0 229275713#1 229275713#2 229275713#3 229275713#4 229275713#6 229275713#7 229275713#8 229275713#9 229275713#10 229275713#11 229275713#12 229275713#13 -121899711#3 -121899711#2 -121899711#1 121899700#0"/>
    </vehicle>
    <vehicle id="52" depart="52.00">
        <route edges="-425289063#8 425289063#8 425289063#9 425289063#11 -229275713#4 -229275713#3 -229275713#2 -229275713#1 -229275713#0 820376319 280763267"/>
    </vehicle>
    <vehicle id="53" depart="53.00">
        <route edges="-229275749#11 -229275749#10 -229275749#9 -229275749#8 -229275749#7 -229275749#6 -229275749#5 -229275749#4 -229275749#3 -229275749#2 -229275749#1 -229275749#0 -425329604#0 -264888083#4 -264888083#3 -264888083#2 -264888083#0 -70931138#4 -70931138#3 -70931138#1 -70931138#0 -72785699#10 -72785699#8 -72785699#7 -72785699#6 -72785699#5 -72785699#4 -72785699#3 -72785699#2 -72785699#1"/>
    </vehicle>
    <vehicle id="54" depart="54.00">
        <route edges="-72796670#7 -72796670#5 -72796670#4 -72796670#3 -72796670#2 -72796670#0 426201780 229275721#1 229275721#2 229275721#3 229275741 229275711#0 229275711#2 229275711#3 229275711#4 229275711#5 426220870#2 426220870#3 72785694#0 72785694#1 72785694#2 72785694#3 72785694#4 72785694#5 72785694#6 425260721#0 425260721#1 425260721#2 425260721#3 425260721#4 425260721#5 425260721#7 425260721#8 425260721#9 425260721#10 425260721#11 425260721#12 425260721#13 425260721#14 425260721#15 425260721#16 -70931138#1 -70931138#0 -72785699#10 -72785699#8 -72785699#7 -72785699#6 72785699#6"/>
    </vehicle>
    <vehicle id="55" depart="55.00">
        <route edges="425509304#4 426220870#3 421887008 70931135#0 70931135#1 70931135#3 70931135#4 70931135#5 70931135#7 70931135#8 70931135#10 70931135#11 229275732 -72785705#3 -72785705#2 -72785705#1 -72785705#0 -421885157 -426196392#0 426196389 426196391#1 -421560479#14 -421560479#12 -421560479#11 -421560479#10 -421560479#9 -421560479#8 -421560479#6 -421560479#5 -421560479#4 -421560479#3 -421560479#2 -421560479#1 -421560479#0 -425262076#1"/>